     14

Cl    62.77833    85.87914    76.83262
N    60.59684    83.81253    76.60606
C    61.19771    83.88664    77.85350
C    62.26801    84.77661    78.11257
C    60.80788    83.03197    78.91059
C    62.92038    84.81313    79.34700
C    61.45563    83.06386    80.14710
C    62.51650    83.95229    80.37537
H    59.98423    82.33147    78.73769
H    63.73907    85.52161    79.49277
H    61.12549    82.38727    80.94034
H    63.02622    83.98031    81.34124
H    59.65149    83.43889    76.59923
H    60.71372    84.63554    76.01806

