    9

S     53.81803    73.86820    66.89553
C    53.27415    72.36574    68.92230
C    54.37598    73.18527    69.32108
C    52.86125    72.62066    67.63306
C    54.78246    74.04940    68.32828
H    52.80459    71.61672    69.56263
H    54.85040    73.13835    70.30305
H    52.05424    72.15303    67.07182
H    55.58814    74.78107    68.35060

