       56

C     1.77244     3.02066     1.52930
C     2.75657     2.00724     1.71987
H     3.62194     2.20515     2.36048
C     2.62334     0.78161     1.10270
H     3.37749     0.00311     1.24674
C     1.49821     0.49230     0.26336
C     0.49085     1.52109     0.07761
C    -0.64297     1.26136    -0.73156
C    -0.80624    -0.00514    -1.34589
C     0.20547    -1.03059    -1.16781
C     0.01535    -2.29752    -1.81013
C     1.12888    -2.90884     1.65479
C     2.25405    -2.84573     0.78314
C     2.39820    -1.81566    -0.20682
C     1.34808    -0.76520    -0.37231
C     3.52533    -1.80195    -1.02222
C     4.53484    -2.79001    -0.89961
C     4.41363    -3.79625     0.04244
H     5.18774    -4.56528     0.14183
C     3.28063    -3.85156     0.90233
C     3.13174    -4.87517     1.88142
H     3.91523    -5.63672     1.96557
C     2.02444    -4.91062     2.71126
H     1.92375    -5.70379     3.45899
C     1.01644    -3.91780     2.59666
H     0.14494    -3.95123     3.25822
H     5.40855    -2.75216    -1.55788
H     3.62488    -1.01202    -1.77350
H     0.35281    -2.14298     1.56529
H     0.78280    -3.06570    -1.68210
C    -1.10673    -2.55069    -2.57005
C    -2.10577    -1.54762    -2.73567
H    -2.99470    -1.76149    -3.33773
C    -1.95719    -0.31174    -2.14299
H    -2.72160     0.45967    -2.26999
C    -1.67006     2.32691    -0.94113
C    -1.59241     3.15330    -2.05741
H    -0.77153     3.00807    -2.76687
C    -2.55160     4.17208    -2.28713
H    -2.46130     4.80664    -3.17446
C    -3.59259     4.36279    -1.39573
H    -4.33756     5.14803    -1.56582
C    -3.71603     3.54200    -0.23943
C    -2.74212     2.50477    -0.00294
C    -2.87852     1.68877     1.15672
C    -3.92381     1.88503     2.04356
C    -4.88212     2.90637     1.81175
C    -4.77816     3.71540     0.69347
H    -5.51425     4.50549     0.50707
H    -5.70392     3.05152     2.52021
H    -4.01358     1.24872     2.92977
H    -2.13898     0.90226     1.33368
C     0.67407     2.78358     0.73054
H    -0.08260     3.55916     0.58372
H     1.89043     3.99105     2.02206
H    -1.23315    -3.52680    -3.04923
